!!>>>>>>>>>>>>>>>>>>>>>>>>>>>>>>>>>>>>>>>>>>>>>>>>>>>>>>>>>>>>>>>>>>>>>>
!! NEMO/LIM-2 : Ice configuration namelist. Overwrites SHARED/namelist_ice_lim2_ref
!>>>>>>>>>>>>>>>>>>>>>>>>>>>>>>>>>>>>>>>>>>>>>>>>>>>>>>>>>>>>>>>>>>>>>>>

!-----------------------------------------------------------------------
&namicerun     !   Share parameters for dynamics/advection/thermo
!-----------------------------------------------------------------------
/
!-----------------------------------------------------------------------
&namiceini     !   ice initialisation
!-----------------------------------------------------------------------
rn_thres_sst   =  -1.5           !  maximum water temperature with initial ice (degC)
/
!------------------------------------------------------------------------------
&namiceitd     !   Ice discretization
!------------------------------------------------------------------------------
   nn_catbnd      =    2           !  computation of ice category boundaries based on
                                   !      1: tanh function
                                   !      2: h^(-alpha), function of rn_himean
   rn_himean      =    2.0         !  expected domain-average ice thickness (m), nn_catbnd = 2 only
/
!-----------------------------------------------------------------------
&namicedyn     !   ice dynamic
!-----------------------------------------------------------------------
   rn_cio         =    5.0e-03     !  ice-ocean drag coefficient           (-)  
/
!-----------------------------------------------------------------------
&namicethd     !   ice thermodynamic
!-----------------------------------------------------------------------
/
!-----------------------------------------------------------------------
&namicesal     !   ice salinity
!-----------------------------------------------------------------------
/
!-----------------------------------------------------------------------
&namiceitdme   !   parameters for mechanical redistribution of ice 
!-----------------------------------------------------------------------
/
!-----------------------------------------------------------------------
&namicedia     !   ice diagnostics
!-----------------------------------------------------------------------
/
